
     RDKit          3D

 14 13  0  0  0  0  0  0  0  0999 V2000
   -0.0087   -0.6836    1.2947 N   0  0  0  0  0  0  0  0  0  0  0  0
    0.0474   -0.6127   -0.1518 C   0  0  0  0  0  0  0  0  0  0  0  0
   -1.3032   -0.2253   -0.7206 C   0  0  0  0  0  0  0  0  0  0  0  0
   -1.8786    1.4887   -0.0714 Se  0  0  0  0  0  2  0  0  0  0  0  0
    1.0838    0.3461   -0.6291 C   0  0  0  0  0  0  0  0  0  0  0  0
    1.2713    0.5351   -1.8786 O   0  0  0  0  0  0  0  0  0  0  0  0
    1.8631    1.0497    0.3086 O   0  0  0  0  0  0  0  0  0  0  0  0
    0.9025   -0.4923    1.7572 H   0  0  0  0  0  0  0  0  0  0  0  0
   -0.4386   -1.5820    1.5460 H   0  0  0  0  0  0  0  0  0  0  0  0
    0.3212   -1.6113   -0.5528 H   0  0  0  0  0  0  0  0  0  0  0  0
   -1.2293   -0.1504   -1.8137 H   0  0  0  0  0  0  0  0  0  0  0  0
   -1.9808   -1.0637   -0.5016 H   0  0  0  0  0  0  0  0  0  0  0  0
   -1.4922    1.7740    1.3768 H   0  0  0  0  0  0  0  0  0  0  0  0
    2.8422    1.2276    0.0363 H   0  0  0  0  0  0  0  0  0  0  0  0
  1  2  1  0
  2  3  1  0
  3  4  1  0
  2  5  1  0
  5  6  2  0
  5  7  1  0
  1  8  1  0
  1  9  1  0
  2 10  1  0
  3 11  1  0
  3 12  1  0
  4 13  1  0
  7 14  1  0
M  END
$$$$
